REMARK score -93.89
LCcorina  10041815563D 1   1.00000     0.00000     0
CORINA 4.00 0026  26.04.2017
 83 85  0  0  0  0            999 V2000
   26.0389    5.0980   17.1262 C   0  0  0  0  0  0  0  0  0  0  0  0
   26.4167    5.7876   18.2802 C   0  0  0  0  0  0  0  0  0  0  0  0
   27.6637    6.4053   18.3411 C   0  0  0  0  0  0  0  0  0  0  0  0
   26.8569    5.1146   15.9818 C   0  0  0  0  0  0  0  0  0  0  0  0
   28.0575    5.8109   16.0184 C   0  0  0  0  0  0  0  0  0  0  0  0
   28.4163    6.4994   17.1827 C   0  0  0  0  0  0  0  0  0  0  0  0
   28.9594    5.7943   14.8234 C   0  0  0  0  0  0  0  0  0  0  0  0
   28.5541    5.9358   13.6745 O   0  0  0  0  0  0  0  0  0  0  0  0
   30.2347    5.6239   15.1551 N   0  0  0  0  0  0  0  0  0  0  0  0
   31.4131    5.8430   14.3108 C   0  0  0  0  0  0  0  0  0  0  0  0
   31.9673    4.4540   13.9943 C   0  0  0  0  0  0  0  0  0  0  0  0
   31.0226    3.6874   13.0758 C   0  0  0  0  0  0  0  0  0  0  0  0
   31.4347    2.3120   12.8649 N   0  3  0  0  0  0  0  0  0  0  0  0
   30.7489    1.5429   11.8351 C   0  0  0  0  0  0  0  0  0  0  0  0
   30.5484    2.3291   10.5546 C   0  0  0  0  0  0  0  0  0  0  0  0
   31.6454    2.8088    9.8772 C   0  0  0  0  0  0  0  0  0  0  0  0
   31.5162    3.5349    8.7105 C   0  0  0  0  0  0  0  0  0  0  0  0
   32.7653    4.0494    8.0830 C   0  0  0  0  0  0  0  0  0  0  0  0
   33.3879    5.1291    8.9235 C   0  0  0  0  0  0  0  0  0  0  0  0
   33.7428    2.9263    7.7978 C   0  0  0  0  0  0  0  0  0  0  0  0
   30.2393    3.8019    8.2119 C   0  0  0  0  0  0  0  0  0  0  0  0
   29.1289    3.3147    8.9032 C   0  0  0  0  0  0  0  0  0  0  0  0
   29.2486    2.5630   10.0638 C   0  0  0  0  0  0  0  0  0  0  0  0
   33.2451    4.5721   13.3243 O   0  0  0  0  0  0  0  0  0  0  0  0
   32.4767    6.7299   15.0334 C   0  0  0  0  0  0  0  0  0  0  0  0
   31.8682    7.8722   15.7172 C   0  0  0  0  0  0  0  0  0  0  0  0
   32.5590    8.3203   16.9183 C   0  0  0  0  0  0  0  0  0  0  0  0
   31.6736    9.1391   17.8655 C   0  0  0  0  0  0  0  0  0  0  0  0
   31.3707    8.8351   19.1153 C   0  0  0  0  0  0  0  0  0  0  0  0
   30.4658    9.8158   19.8470 C   0  0  0  0  0  0  0  0  0  0  0  0
   29.3443    9.0273   20.5325 C   0  0  0  0  0  0  0  0  0  0  0  0
   28.5003    8.3110   19.5637 N   0  0  0  0  0  0  0  0  0  0  0  0
   28.2427    6.9808   19.6075 C   0  0  0  0  0  0  0  0  0  0  0  0
   28.5371    6.2545   20.5547 O   0  0  0  0  0  0  0  0  0  0  0  0
   27.5523    9.1761   18.8879 C   0  0  0  0  0  0  0  0  0  0  0  0
   26.2955    9.0524   19.7015 C   0  0  0  0  0  0  0  0  0  0  0  0
   31.7453    9.0484   14.7312 C   0  0  0  0  0  0  0  0  0  0  0  0
   25.1112    4.5454   17.1067 H   0  0  0  0  0  0  0  0  0  0  0  0
   25.7427    5.8409   19.1224 H   0  0  0  0  0  0  0  0  0  0  0  0
   26.5481    4.5900   15.0897 H   0  0  0  0  0  0  0  0  0  0  0  0
   29.3034    7.1152   17.1636 H   0  0  0  0  0  0  0  0  0  0  0  0
   30.3578    5.2786   16.1922 H   0  0  0  0  0  0  0  0  0  0  0  0
   31.0927    6.3688   13.3992 H   0  0  0  0  0  0  0  0  0  0  0  0
   32.1306    3.9068   14.9344 H   0  0  0  0  0  0  0  0  0  0  0  0
   30.0149    3.6720   13.5166 H   0  0  0  0  0  0  0  0  0  0  0  0
   30.9855    4.1810   12.0934 H   0  0  0  0  0  0  0  0  0  0  0  0
   32.4969    2.2870   12.5803 H   0  0  0  0  0  0  0  0  0  0  0  0
   31.3396    0.6474   11.5918 H   0  0  0  0  0  0  0  0  0  0  0  0
   29.7577    1.2394   12.2030 H   0  0  0  0  0  0  0  0  0  0  0  0
   32.6390    2.6201   10.2561 H   0  0  0  0  0  0  0  0  0  0  0  0
   32.4802    4.5027    7.1222 H   0  0  0  0  0  0  0  0  0  0  0  0
   34.2879    5.5123    8.4203 H   0  0  0  0  0  0  0  0  0  0  0  0
   33.6642    4.7162    9.9050 H   0  0  0  0  0  0  0  0  0  0  0  0
   32.6671    5.9488    9.0602 H   0  0  0  0  0  0  0  0  0  0  0  0
   33.1976    2.0583    7.3985 H   0  0  0  0  0  0  0  0  0  0  0  0
   34.2552    2.6410    8.7284 H   0  0  0  0  0  0  0  0  0  0  0  0
   34.4847    3.2646    7.0595 H   0  0  0  0  0  0  0  0  0  0  0  0
   30.1230    4.3772    7.3053 H   0  0  0  0  0  0  0  0  0  0  0  0
   28.1333    3.5190    8.5382 H   0  0  0  0  0  0  0  0  0  0  0  0
   28.3934    2.1624   10.5878 H   0  0  0  0  0  0  0  0  0  0  0  0
   34.1167    4.9662   13.8675 H   0  0  0  0  0  0  0  0  0  0  0  0
   33.0096    6.1262   15.7827 H   0  0  0  0  0  0  0  0  0  0  0  0
   33.1951    7.1156   14.2951 H   0  0  0  0  0  0  0  0  0  0  0  0
   30.9131    7.4810   16.0978 H   0  0  0  0  0  0  0  0  0  0  0  0
   32.9216    7.4469   17.4801 H   0  0  0  0  0  0  0  0  0  0  0  0
   33.4123    8.9543   16.6356 H   0  0  0  0  0  0  0  0  0  0  0  0
   32.1109   10.1389   18.0037 H   0  0  0  0  0  0  0  0  0  0  0  0
   30.6664    9.2359   17.4340 H   0  0  0  0  0  0  0  0  0  0  0  0
   30.8506    7.8661   19.1412 H   0  0  0  0  0  0  0  0  0  0  0  0
   32.2932    8.7721   19.7112 H   0  0  0  0  0  0  0  0  0  0  0  0
   31.0518   10.3644   20.5990 H   0  0  0  0  0  0  0  0  0  0  0  0
   30.0369   10.5272   19.1260 H   0  0  0  0  0  0  0  0  0  0  0  0
   29.7826    8.2873   21.2183 H   0  0  0  0  0  0  0  0  0  0  0  0
   28.7039    9.7188   21.0998 H   0  0  0  0  0  0  0  0  0  0  0  0
   27.9381   10.2062   18.8783 H   0  0  0  0  0  0  0  0  0  0  0  0
   27.4106    8.8280   17.8541 H   0  0  0  0  0  0  0  0  0  0  0  0
   25.5821    9.8315   19.3948 H   0  0  0  0  0  0  0  0  0  0  0  0
   26.5357    9.1744   20.7680 H   0  0  0  0  0  0  0  0  0  0  0  0
   25.8485    8.0608   19.5373 H   0  0  0  0  0  0  0  0  0  0  0  0
   31.2285    9.8861   15.2222 H   0  0  0  0  0  0  0  0  0  0  0  0
   31.1704    8.7291   13.8494 H   0  0  0  0  0  0  0  0  0  0  0  0
   32.7493    9.3701   14.4174 H   0  0  0  0  0  0  0  0  0  0  0  0
   31.2901    1.7394   13.7929 H   0  0  0  0  0  0  0  0  0  0  0  0
  1  2  2  0  0  0  0
  1  4  1  0  0  0  0
  1 38  1  0  0  0  0
  2  3  1  0  0  0  0
  2 39  1  0  0  0  0
  3  6  2  0  0  0  0
  3 33  1  0  0  0  0
  4  5  2  0  0  0  0
  4 40  1  0  0  0  0
  5  6  1  0  0  0  0
  5  7  1  0  0  0  0
  6 41  1  0  0  0  0
  7  8  2  0  0  0  0
  7  9  1  0  0  0  0
  9 10  1  0  0  0  0
  9 42  1  0  0  0  0
 10 11  1  0  0  0  0
 10 25  1  0  0  0  0
 10 43  1  0  0  0  0
 11 12  1  0  0  0  0
 11 24  1  0  0  0  0
 11 44  1  0  0  0  0
 12 13  1  0  0  0  0
 12 45  1  0  0  0  0
 12 46  1  0  0  0  0
 13 14  1  0  0  0  0
 13 47  1  0  0  0  0
 13 83  1  0  0  0  0
 14 15  1  0  0  0  0
 14 48  1  0  0  0  0
 14 49  1  0  0  0  0
 15 16  2  0  0  0  0
 15 23  1  0  0  0  0
 16 17  1  0  0  0  0
 16 50  1  0  0  0  0
 17 18  1  0  0  0  0
 17 21  2  0  0  0  0
 18 19  1  0  0  0  0
 18 20  1  0  0  0  0
 18 51  1  0  0  0  0
 19 52  1  0  0  0  0
 19 53  1  0  0  0  0
 19 54  1  0  0  0  0
 20 55  1  0  0  0  0
 20 56  1  0  0  0  0
 20 57  1  0  0  0  0
 21 22  1  0  0  0  0
 21 58  1  0  0  0  0
 22 23  2  0  0  0  0
 22 59  1  0  0  0  0
 23 60  1  0  0  0  0
 24 61  1  0  0  0  0
 25 26  1  0  0  0  0
 25 62  1  0  0  0  0
 25 63  1  0  0  0  0
 26 27  1  0  0  0  0
 26 37  1  0  0  0  0
 26 64  1  0  0  0  0
 27 28  1  0  0  0  0
 27 65  1  0  0  0  0
 27 66  1  0  0  0  0
 28 29  1  0  0  0  0
 28 67  1  0  0  0  0
 28 68  1  0  0  0  0
 29 30  1  0  0  0  0
 29 69  1  0  0  0  0
 29 70  1  0  0  0  0
 30 31  1  0  0  0  0
 30 71  1  0  0  0  0
 30 72  1  0  0  0  0
 31 32  1  0  0  0  0
 31 73  1  0  0  0  0
 31 74  1  0  0  0  0
 32 33  1  0  0  0  0
 32 35  1  0  0  0  0
 33 34  2  0  0  0  0
 35 36  1  0  0  0  0
 35 75  1  0  0  0  0
 35 76  1  0  0  0  0
 36 77  1  0  0  0  0
 36 78  1  0  0  0  0
 36 79  1  0  0  0  0
 37 80  1  0  0  0  0
 37 81  1  0  0  0  0
 37 82  1  0  0  0  0
M  CHG  1  13   1
M  END
$$$$
