REMARK score -94.61
LCcorina  10041815573D 1   1.00000     0.00000     0
CORINA 4.00 0026  26.04.2017
 78 80  0  0  0  0            999 V2000
   30.0817    5.8744   15.5689 N   0  0  0  0  0  0  0  0  0  0  0  0
   31.0768    5.9668   14.4764 C   0  0  0  0  0  0  0  0  0  0  0  0
   32.1282    7.0611   14.7985 C   0  0  0  0  0  0  0  0  0  0  0  0
   31.5804    8.4575   15.1801 C   0  0  0  0  0  0  0  0  0  0  0  0
   31.4819    8.6552   16.7044 C   0  0  0  0  0  0  0  0  0  0  0  0
   30.8977   10.0119   17.1396 C   0  0  0  0  0  0  0  0  0  0  0  0
   30.3663    9.9857   18.4589 O   0  0  0  0  0  0  0  0  0  0  0  0
   31.2336    9.5764   19.5124 C   0  0  0  0  0  0  0  0  0  0  0  0
   30.4137    9.5114   20.8109 C   0  0  0  0  0  0  0  0  0  0  0  0
   29.1215    8.6674   20.7001 C   0  0  0  0  0  0  0  0  0  0  0  0
   29.3758    7.1579   20.5765 C   0  0  0  0  0  0  0  0  0  0  0  0
   28.1065    6.4709   20.3694 N   0  0  0  0  0  0  0  0  0  0  0  0
   27.6384    6.1507   19.1255 C   0  0  0  0  0  0  0  0  0  0  0  0
   28.4391    6.1913   17.9486 C   0  0  0  0  0  0  0  0  0  0  0  0
   27.8916    5.8384   16.6906 C   0  0  0  0  0  0  0  0  0  0  0  0
   26.5329    5.4414   16.5987 C   0  0  0  0  0  0  0  0  0  0  0  0
   25.7215    5.3957   17.7612 C   0  0  0  0  0  0  0  0  0  0  0  0
   26.2842    5.7500   19.0174 N   0  0  0  0  0  0  0  0  0  0  0  0
   24.0377    4.9021   17.6423 Cl  0  0  0  0  0  0  0  0  0  0  0  0
   28.7397    5.8986   15.4288 C   0  0  0  0  0  0  0  0  0  0  0  0
   28.2121    5.9479   14.3204 O   0  0  0  0  0  0  0  0  0  0  0  0
   31.7640    4.5859   14.2251 C   0  0  0  0  0  0  0  0  0  0  0  0
   33.0118    4.7540   13.5394 O   0  0  0  0  0  0  0  0  0  0  0  0
   30.8867    3.7097   13.2974 C   0  0  0  0  0  0  0  0  0  0  0  0
   31.4764    2.3700   13.0934 N   0  3  0  0  0  0  0  0  0  0  0  0
   30.8680    1.6731   11.9487 C   0  0  0  0  0  0  0  0  0  0  0  0
   30.7216    2.4319   10.6224 C   0  0  0  0  0  0  0  0  0  0  0  0
   31.8759    2.9487    9.9924 C   0  0  0  0  0  0  0  0  0  0  0  0
   31.7791    3.6572    8.7646 C   0  0  0  0  0  0  0  0  0  0  0  0
   30.4985    3.8370    8.1839 C   0  0  0  0  0  0  0  0  0  0  0  0
   29.3368    3.3259    8.8080 C   0  0  0  0  0  0  0  0  0  0  0  0
   29.4486    2.6228   10.0282 C   0  0  0  0  0  0  0  0  0  0  0  0
   33.0598    4.2031    8.1051 C   0  0  0  0  0  0  0  0  0  0  0  0
   33.6116    5.4207    8.8972 C   0  0  0  0  0  0  0  0  0  0  0  0
   34.1645    3.1498    7.8111 C   0  0  0  0  0  0  0  0  0  0  0  0
   32.5051    9.5454   14.6039 C   0  0  0  0  0  0  0  0  0  0  0  0
   30.4174    5.7753   16.6117 H   0  0  0  0  0  0  0  0  0  0  0  0
   30.5054    6.2581   13.5827 H   0  0  0  0  0  0  0  0  0  0  0  0
   32.7444    6.7380   15.6505 H   0  0  0  0  0  0  0  0  0  0  0  0
   32.7714    7.2213   13.9207 H   0  0  0  0  0  0  0  0  0  0  0  0
   30.5662    8.5392   14.7619 H   0  0  0  0  0  0  0  0  0  0  0  0
   30.8338    7.8770   17.1339 H   0  0  0  0  0  0  0  0  0  0  0  0
   32.4854    8.5831   17.1491 H   0  0  0  0  0  0  0  0  0  0  0  0
   31.6873   10.7772   17.1106 H   0  0  0  0  0  0  0  0  0  0  0  0
   30.0849   10.2975   16.4557 H   0  0  0  0  0  0  0  0  0  0  0  0
   31.6518    8.5861   19.2792 H   0  0  0  0  0  0  0  0  0  0  0  0
   32.0516   10.3043   19.6176 H   0  0  0  0  0  0  0  0  0  0  0  0
   31.0250    9.0643   21.6086 H   0  0  0  0  0  0  0  0  0  0  0  0
   30.1125   10.5274   21.1057 H   0  0  0  0  0  0  0  0  0  0  0  0
   28.5044    8.8221   21.5975 H   0  0  0  0  0  0  0  0  0  0  0  0
   28.5564    8.9774   19.8087 H   0  0  0  0  0  0  0  0  0  0  0  0
   30.0416    6.9671   19.7219 H   0  0  0  0  0  0  0  0  0  0  0  0
   29.8481    6.7889   21.4988 H   0  0  0  0  0  0  0  0  0  0  0  0
   27.4857    6.1903   21.2331 H   0  0  0  0  0  0  0  0  0  0  0  0
   29.4742    6.4932   18.0099 H   0  0  0  0  0  0  0  0  0  0  0  0
   26.1125    5.1725   15.6409 H   0  0  0  0  0  0  0  0  0  0  0  0
   31.9885    4.1091   15.1905 H   0  0  0  0  0  0  0  0  0  0  0  0
   33.9118    5.0479   14.0994 H   0  0  0  0  0  0  0  0  0  0  0  0
   29.8900    3.5847   13.7459 H   0  0  0  0  0  0  0  0  0  0  0  0
   30.7888    4.1979   12.3166 H   0  0  0  0  0  0  0  0  0  0  0  0
   32.5553    2.4694   12.9033 H   0  0  0  0  0  0  0  0  0  0  0  0
   31.4674    0.7851   11.6994 H   0  0  0  0  0  0  0  0  0  0  0  0
   29.8451    1.3636   12.2094 H   0  0  0  0  0  0  0  0  0  0  0  0
   32.8467    2.8072   10.4440 H   0  0  0  0  0  0  0  0  0  0  0  0
   30.3990    4.3712    7.2506 H   0  0  0  0  0  0  0  0  0  0  0  0
   28.3692    3.4738    8.3518 H   0  0  0  0  0  0  0  0  0  0  0  0
   28.5642    2.2306   10.5085 H   0  0  0  0  0  0  0  0  0  0  0  0
   32.7357    4.5323    7.1068 H   0  0  0  0  0  0  0  0  0  0  0  0
   34.4989    5.8200    8.3843 H   0  0  0  0  0  0  0  0  0  0  0  0
   33.8875    5.1025    9.9134 H   0  0  0  0  0  0  0  0  0  0  0  0
   32.8388    6.2014    8.9546 H   0  0  0  0  0  0  0  0  0  0  0  0
   34.6070    2.8083    8.7584 H   0  0  0  0  0  0  0  0  0  0  0  0
   34.9460    3.6035    7.1838 H   0  0  0  0  0  0  0  0  0  0  0  0
   33.7222    2.2923    7.2828 H   0  0  0  0  0  0  0  0  0  0  0  0
   32.0900   10.5381   14.8324 H   0  0  0  0  0  0  0  0  0  0  0  0
   32.5815    9.4219   13.5135 H   0  0  0  0  0  0  0  0  0  0  0  0
   33.5045    9.4533   15.0543 H   0  0  0  0  0  0  0  0  0  0  0  0
   31.3176    1.7585   13.9939 H   0  0  0  0  0  0  0  0  0  0  0  0
  1  2  1  0  0  0  0
  1 20  1  0  0  0  0
  1 37  1  0  0  0  0
  2  3  1  0  0  0  0
  2 22  1  0  0  0  0
  2 38  1  0  0  0  0
  3  4  1  0  0  0  0
  3 39  1  0  0  0  0
  3 40  1  0  0  0  0
  4  5  1  0  0  0  0
  4 36  1  0  0  0  0
  4 41  1  0  0  0  0
  5  6  1  0  0  0  0
  5 42  1  0  0  0  0
  5 43  1  0  0  0  0
  6  7  1  0  0  0  0
  6 44  1  0  0  0  0
  6 45  1  0  0  0  0
  7  8  1  0  0  0  0
  8  9  1  0  0  0  0
  8 46  1  0  0  0  0
  8 47  1  0  0  0  0
  9 10  1  0  0  0  0
  9 48  1  0  0  0  0
  9 49  1  0  0  0  0
 10 11  1  0  0  0  0
 10 50  1  0  0  0  0
 10 51  1  0  0  0  0
 11 12  1  0  0  0  0
 11 52  1  0  0  0  0
 11 53  1  0  0  0  0
 12 13  1  0  0  0  0
 12 54  1  0  0  0  0
 13 14  2  0  0  0  0
 13 18  1  0  0  0  0
 14 15  1  0  0  0  0
 14 55  1  0  0  0  0
 15 16  2  0  0  0  0
 15 20  1  0  0  0  0
 16 17  1  0  0  0  0
 16 56  1  0  0  0  0
 17 18  2  0  0  0  0
 17 19  1  0  0  0  0
 20 21  2  0  0  0  0
 22 23  1  0  0  0  0
 22 24  1  0  0  0  0
 22 57  1  0  0  0  0
 23 58  1  0  0  0  0
 24 25  1  0  0  0  0
 24 59  1  0  0  0  0
 24 60  1  0  0  0  0
 25 26  1  0  0  0  0
 25 61  1  0  0  0  0
 25 78  1  0  0  0  0
 26 27  1  0  0  0  0
 26 62  1  0  0  0  0
 26 63  1  0  0  0  0
 27 28  2  0  0  0  0
 27 32  1  0  0  0  0
 28 29  1  0  0  0  0
 28 64  1  0  0  0  0
 29 30  2  0  0  0  0
 29 33  1  0  0  0  0
 30 31  1  0  0  0  0
 30 65  1  0  0  0  0
 31 32  2  0  0  0  0
 31 66  1  0  0  0  0
 32 67  1  0  0  0  0
 33 34  1  0  0  0  0
 33 35  1  0  0  0  0
 33 68  1  0  0  0  0
 34 69  1  0  0  0  0
 34 70  1  0  0  0  0
 34 71  1  0  0  0  0
 35 72  1  0  0  0  0
 35 73  1  0  0  0  0
 35 74  1  0  0  0  0
 36 75  1  0  0  0  0
 36 76  1  0  0  0  0
 36 77  1  0  0  0  0
M  CHG  1  25   1
M  END
$$$$
